Version 4
SHEET 1 924 680
WIRE 608 16 544 16
WIRE 864 16 688 16
WIRE 864 48 864 16
WIRE 544 128 544 16
WIRE 864 192 864 128
WIRE 544 256 544 192
WIRE 224 304 48 304
WIRE 384 304 304 304
WIRE 480 304 384 304
WIRE 48 352 48 304
WIRE 384 352 384 304
WIRE 48 528 48 432
WIRE 384 528 384 432
WIRE 544 528 544 352
FLAG 864 192 0
FLAG 544 528 0
FLAG 384 528 0
FLAG 48 528 0
SYMBOL npn 480 256 R0
SYMATTR InstName Q1
SYMATTR Value BC847B
SYMBOL LED 528 128 R0
SYMATTR InstName D1
SYMBOL res 368 336 R0
SYMATTR InstName R1
SYMATTR Value 4.7k
SYMBOL Res 320 288 R90
WINDOW 0 0 56 VBottom 2
WINDOW 3 32 56 VTop 2
SYMATTR InstName R3
SYMATTR Value 4.7k
SYMBOL voltage 864 32 R0
SYMATTR InstName V1
SYMATTR Value 5
SYMBOL res 704 0 R90
WINDOW 0 0 56 VBottom 2
WINDOW 3 32 56 VTop 2
SYMATTR InstName R2
SYMATTR Value 330
SYMBOL voltage 48 336 R0
SYMATTR InstName V2
SYMATTR Value PULSE(0 3 1 0 0 1 2 5)
TEXT 80 72 Left 2 !.tran 0 5s 100ms
