* Microchip/Supertex DN2540
* https://www.diyaudio.com/community/threads/dn2540-spice-model.330980/
*$
.MODEL DN2540 NMOS (LEVEL=3 RS=1.05 NSUB=5.0E14 DELTA=0.1 KAPPA=0.20 TPG=1 CGDO=3.1716E-10 RD=11 VTO=-1.50 VMAX=1.0E7 ETA=0.0223089 NFS=6.6E10 TOX=725E-10 LD=1.698E-9 UO=862.425 XJ=6.4666E-7 THETA=1.0E-5 CGSO=2.50E-9 L=4.0E-6 W=59E-3)

* Microchip LND150
* https://ltwiki.org/index.php?title=Standard.mos
*$
.MODEL LND150 NMOS (LEVEL=3 RS=150.00 NSUB=5.0E13 DELTA=0.1 KAPPA=1.O TPG=1 CGDO=2.1716E-12 RD=40.0 VTO=-2.0 VMAX=1.0E8 ETA=0.1 NFS=6.6E10 TOX=1.0E-7 LD=1.698E-9 UO=862.425 XJ=6.4666E-7 THETA=1.0E-5 CGSO=5.09E-10 L=10.0E-6 W=600E-6)

* Selfmade model of the LM334 from National Semiconductor or ST
* Helmut Sennewald
*
* Pin order: v+  v-  R
*$
.SUBCKT LM334 v+ v- R
Q4 N002 N001 v+ 0 pnp1
Q5 N003 N001 v+ 0 pnp1
Q6 R N001 v+ 0 pnp1 14
Q1 N003 N003 R 0 npn1 14
Q2 N002 N003 N004 0 npn1
Q3 N001 N002 R 0 npn1
C1 N002 N004 50p
R2 N004 v- 1ɠ
R8 v+ v- 1G
C2 v+ v- 10p
C3 N003 v- 1p
C4 R v- 1p
.model npn1 NPN(Is=1e-15 BF=200 TF=1e-9 Cjc=0.5e-12 Cje=1e-12 VAF=100 Rb=100 Re=5)
.model pnp1 PNP(Is=1e-15 BF=100 TF=1e-7 Cjc=0.5e-12 Cje=1e-12 VAF=100 Rb=100 Re=5)
.ENDS
*$
