*TS-180 ans TC-180-2 transformer models
*in the case of convergence problems, try to shunt the windings by the
*resistors about 1000 kOm. Note the winding polarity which is unfortunately
*not seen on the part picture!


.SUBCKT TC180  1 2 3 101 102 103 5 6 205 206 7 8 207 208 9 10 209 210 11 12 211 212
R1 1 13 0.0023k
R2 3 14 0.0004k
R3 101 15 0.0023k
R4 103 16 0.0004k
R5 17 5 0.0034k
R6 18 205 0.0034k
R7 19 7 0.0034k
R8 20 207 0.0034k
R9 21 9 0.00018k
R10 22 209 0.00018k
R11 23 11 0.0004k
R12 24 211 0.0004k
L1 13 2 375
L2 2 14 58
L3 102 15 375
L4 16 102 58
L5 17 6 226
L6 206 18 226
L7 19 8 137
L8 208 20 137
L9 21 10 23
L10 210 22 23
L11 23 12 23
L12 212 24 23
R13 2 14 1000k
R14 102 15 1000k
R15 16 102 1000k
R16 17 6 1000k
R17 206 18 1000k
R18 19 8 1000k
R19 208 20 1000k
R20 21 10 1000k
R21 210 22 1000k
R22 23 12 1000k
R23 212 24 1000k
Kn1 L1 L2 L3 L4 L5 L6 L7 L8 L9 L10 L11 L12 0.998 TRC1
.MODEL TRC1 CORE
+ (GAP=5.0000E-6
+ MS=1.7550E6
+ A=76.220
+ C=.10622
+ K=42.124
+ AREA=9.45000
+ PATH=28.597
+ PACK=1)
.ENDS
*$

.SUBCKT TC180-2  1 2 3 101 102 103 5 6 205 206 7 8 207 208 9 10 209 210 11 12 211 212
R1 1 13 0.0029k
R2 3 14 0.0005k
R3 101 15 0.0029k
R4 103 16 0.0005k
R5 17 5 0.0035k
R6 18 205 0.0035k
R7 19 7 0.0028k
R8 20 207 0.0028k
R9 21 9 0.00018k
R10 22 209 0.00018k
R11 23 11 0.00018k
R12 24 211 0.00018k
L1 13 2 340
L2 2 14 53
L3 102 15 340
L4 16 102 53
L5 17 6 195
L6 206 18 195
L7 19 8 143
L8 208 20 143
L9 21 10 21
L10 210 22 21
L11 23 12 21
L12 212 24 21
R13 2 14 1000k
R14 102 15 1000k
R15 16 102 1000k
R16 17 6 1000k
R17 206 18 1000k
R18 19 8 1000k
R19 208 20 1000k
R20 21 10 1000k
R21 210 22 1000k
R22 23 12 1000k
R23 212 24 1000k
Kn1 L1 L2 L3 L4 L5 L6 L7 L8 L9 L10 L11 L12 0.998 TRC1
.MODEL TRC1 CORE
+ (GAP=5.0000E-6
+ MS=1.7550E6
+ A=76.220
+ C=.10622
+ K=42.124
+ AREA=9.45000
+ PATH=28.597
+ PACK=1)
.ENDS
*$

