Version 4
SHEET 1 1428 1052
WIRE 720 -256 576 -256
WIRE 944 -256 944 -304
WIRE 944 -256 720 -256
WIRE 576 -176 576 -256
WIRE 720 -176 720 -256
WIRE -928 -96 -928 -144
WIRE -784 -96 -784 -144
WIRE 944 -80 944 -256
WIRE 576 -32 576 -96
WIRE 624 -32 576 -32
WIRE 720 -32 720 -96
WIRE 720 -32 688 -32
WIRE 880 -32 720 -32
WIRE 720 16 720 -32
WIRE -928 32 -928 -16
WIRE -784 32 -784 -16
WIRE 448 64 416 64
WIRE 576 64 576 -32
WIRE 576 64 528 64
WIRE 656 64 576 64
WIRE 416 112 416 64
WIRE 944 112 944 16
WIRE 944 112 720 112
WIRE 352 160 288 160
WIRE 944 208 944 112
WIRE 288 240 288 160
WIRE 416 272 416 208
WIRE 576 304 576 64
WIRE -96 336 -208 336
WIRE -16 336 -32 336
WIRE 112 336 64 336
WIRE 192 336 112 336
WIRE 288 336 288 320
WIRE 288 336 192 336
WIRE 944 336 944 288
WIRE 1104 336 944 336
WIRE 1168 336 1104 336
WIRE 1360 336 1168 336
WIRE 288 352 288 336
WIRE -208 368 -208 336
WIRE -208 368 -320 368
WIRE 112 368 112 336
WIRE 192 368 192 336
WIRE -208 400 -208 368
WIRE 944 416 944 336
WIRE 1168 416 1168 336
WIRE 1360 416 1360 336
WIRE 416 448 416 384
WIRE 288 496 288 432
WIRE 352 496 288 496
WIRE -208 528 -208 480
WIRE -208 528 -320 528
WIRE 1168 528 1168 496
WIRE 944 544 944 496
WIRE 944 544 720 544
WIRE -208 576 -208 528
WIRE 112 576 112 448
WIRE 192 576 192 432
WIRE 416 592 416 544
WIRE 448 592 416 592
WIRE 576 592 576 368
WIRE 576 592 528 592
WIRE 656 592 576 592
WIRE 1168 608 1168 592
WIRE 1360 608 1360 496
WIRE 944 656 944 544
WIRE 576 704 576 592
WIRE 624 704 576 704
WIRE 720 704 720 640
WIRE 720 704 688 704
WIRE 880 704 720 704
WIRE 576 768 576 704
WIRE 720 768 720 704
WIRE 576 928 576 848
WIRE 720 928 720 848
WIRE 720 928 576 928
WIRE 944 928 944 752
WIRE 944 928 720 928
WIRE 944 992 944 928
FLAG -208 576 0
FLAG 112 576 0
FLAG 192 576 0
FLAG -928 -144 V+
FLAG -784 -144 V-
FLAG -784 32 0
FLAG -928 32 0
FLAG 416 384 V+
FLAG 416 272 V-
FLAG 1168 608 0
FLAG 1104 336 OUT
FLAG 944 -304 V+
FLAG 944 992 V-
FLAG 1360 608 0
SYMBOL cap -32 320 R90
WINDOW 0 0 32 VBottom 2
WINDOW 3 32 32 VTop 2
SYMATTR InstName C1
SYMATTR Value 3.3µ
SYMBOL cap 208 432 R180
WINDOW 0 24 56 Left 2
WINDOW 3 24 8 Left 2
SYMATTR InstName C2
SYMATTR Value 330p
SYMBOL res 80 320 R90
WINDOW 0 0 56 VBottom 2
WINDOW 3 32 56 VTop 2
SYMATTR InstName R1
SYMATTR Value 390
SYMBOL res 128 464 R180
WINDOW 0 36 76 Left 2
WINDOW 3 36 40 Left 2
SYMATTR InstName R2
SYMATTR Value 39k
SYMBOL res 304 336 R180
WINDOW 0 36 76 Left 2
WINDOW 3 36 40 Left 2
SYMATTR InstName R3
SYMATTR Value 33
SYMBOL res 304 448 R180
WINDOW 0 36 76 Left 2
WINDOW 3 36 40 Left 2
SYMATTR InstName R4
SYMATTR Value 33
SYMBOL pnp 352 208 M180
SYMATTR InstName Q1
SYMATTR Value BC556B
SYMBOL npn 352 448 R0
SYMATTR InstName Q2
SYMATTR Value BC546B
SYMBOL Misc/signal -208 384 R0
SYMATTR InstName V1
SYMBOL res 544 48 R90
WINDOW 0 0 56 VBottom 2
WINDOW 3 32 56 VTop 2
SYMATTR InstName R5
SYMATTR Value 100
SYMBOL res 544 576 R90
WINDOW 0 0 56 VBottom 2
WINDOW 3 32 56 VTop 2
SYMATTR InstName R6
SYMATTR Value 100
SYMBOL npn 656 16 R0
SYMATTR InstName Q3
SYMATTR Value BD139C
SYMBOL pnp 656 640 M180
SYMATTR InstName BD140C
SYMBOL cap 688 -48 R90
WINDOW 0 0 32 VBottom 2
WINDOW 3 32 32 VTop 2
SYMATTR InstName C3
SYMATTR Value 470p
SYMBOL cap 688 688 R90
WINDOW 0 0 32 VBottom 2
WINDOW 3 32 32 VTop 2
SYMATTR InstName C4
SYMATTR Value 470p
SYMBOL res 560 -192 R0
SYMATTR InstName R7
SYMATTR Value 10k
SYMBOL res 704 -192 R0
SYMATTR InstName R8
SYMATTR Value 100
SYMBOL res 704 752 R0
SYMATTR InstName R9
SYMATTR Value 100
SYMBOL res 560 752 R0
SYMATTR InstName R10
SYMATTR Value 10k
SYMBOL cap 560 304 R0
SYMATTR InstName C5
SYMATTR Value 1000µ
SYMBOL voltage -928 -112 R0
SYMATTR InstName V2
SYMATTR Value 27
SYMBOL voltage -784 -112 R0
SYMATTR InstName V3
SYMATTR Value -27
SYMBOL pnp 880 16 M180
SYMATTR InstName Q10
SYMATTR Value NJL1302C
SYMBOL npn 880 656 R0
SYMATTR InstName Q6
SYMATTR Value NJL3281C
SYMBOL res 928 192 R0
SYMATTR InstName R11
SYMATTR Value 0.22
SYMBOL res 928 400 R0
SYMATTR InstName R12
SYMATTR Value 0.22
SYMBOL res 1152 400 R0
SYMATTR InstName R13
SYMATTR Value 10
SYMBOL cap 1152 528 R0
SYMATTR InstName C6
SYMATTR Value 33n
SYMBOL res 1344 400 R0
SYMATTR InstName R14
SYMATTR Value 4
TEXT -888 720 Left 2 !.INC ../../../spice/audio/ltspice/snk-lt-spice-audio.lib\n.op\n.tran 10m\n;.ac oct 50 1M 10Meg ; plot V(out)/V(out1) to see 72° phase margin @ 950kHz\n;.dc temp -55 125 1\n;.noise V(out) Vin oct 10 10 20K\n.options plotwinsize=0 numdgt=15 noopiter\n.four 1K V(out)
