Version 4.1
SHEET 1 2124 1968
WIRE 688 -64 240 -64
WIRE -544 -32 -624 -32
WIRE -496 -32 -544 -32
WIRE -336 -32 -416 -32
WIRE -624 -16 -624 -32
WIRE -336 0 -336 -32
WIRE -624 64 -624 48
WIRE 240 80 240 -64
WIRE 416 80 320 80
WIRE 496 80 416 80
WIRE -336 96 -336 80
WIRE 272 160 272 80
WIRE 288 160 288 80
WIRE 368 160 320 160
WIRE 416 160 368 160
WIRE -544 176 -544 -32
WIRE 368 208 368 160
WIRE -512 256 -512 176
WIRE -1504 272 -1552 272
WIRE -1552 288 -1552 272
WIRE -640 288 -672 288
WIRE -544 288 -544 256
WIRE -352 288 -544 288
WIRE -208 288 -352 288
WIRE 176 288 160 288
WIRE 688 304 688 -64
WIRE -544 320 -544 288
WIRE -352 320 -352 288
WIRE 240 320 240 160
WIRE -1120 368 -1152 368
WIRE -832 368 -1040 368
WIRE -768 368 -832 368
WIRE -640 368 -640 288
WIRE -640 368 -688 368
WIRE -592 368 -640 368
WIRE -400 368 -480 368
WIRE -208 368 -208 288
WIRE -112 368 -208 368
WIRE 16 368 -48 368
WIRE 96 368 16 368
WIRE 176 368 176 288
WIRE 192 368 176 368
WIRE -1552 416 -1552 368
WIRE -640 432 -640 368
WIRE -480 432 -480 368
WIRE -480 432 -640 432
WIRE -1488 464 -1552 464
WIRE -576 464 -576 416
WIRE -384 464 -384 416
WIRE -384 464 -576 464
WIRE -832 480 -832 368
WIRE -1552 496 -1552 464
WIRE -576 496 -576 464
WIRE -448 496 -576 496
WIRE 208 496 208 416
WIRE 320 496 208 496
WIRE -576 528 -576 496
WIRE 16 528 16 368
WIRE 208 528 208 496
WIRE -448 544 -448 496
WIRE 320 544 320 496
WIRE -1552 624 -1552 576
WIRE -832 672 -832 560
WIRE -576 672 -576 608
WIRE -576 672 -832 672
WIRE -448 672 -448 608
WIRE -448 672 -576 672
WIRE 16 672 16 608
WIRE 16 672 -448 672
WIRE 208 672 208 608
WIRE 208 672 16 672
WIRE 320 672 320 608
WIRE 320 672 208 672
WIRE 688 672 688 384
WIRE 688 672 320 672
WIRE 208 720 208 672
FLAG 368 208 0
FLAG 496 80 load
IOPIN 496 80 Out
FLAG 208 720 0
FLAG -336 96 0
FLAG -624 64 0
FLAG 160 288 Vg2
IOPIN 160 288 In
FLAG -1552 624 0
FLAG -1552 416 0
FLAG -1504 272 square
IOPIN -1504 272 Out
FLAG -1488 464 sine
IOPIN -1488 464 Out
FLAG -1152 368 sine
IOPIN -1152 368 In
FLAG -672 288 Vg1
IOPIN -672 288 In
SYMBOL voltage 688 288 R0
WINDOW 123 0 0 Left 0
WINDOW 39 0 0 Left 0
WINDOW 0 -7 57 Left 2
SYMATTR InstName V1
SYMATTR Value 1130
SYMBOL Misc\\triode 240 368 R0
SYMATTR InstName U1
SYMATTR Value 211
SYMBOL ind2 224 176 M180
WINDOW 0 -35 75 Left 2
WINDOW 3 -36 54 Left 2
SYMATTR InstName L1
SYMATTR Value 60
SYMATTR Type ind
SYMATTR SpiceLine Rser=277 Cpar=400p
SYMBOL ind2 336 176 R180
WINDOW 3 -31 54 Left 2
WINDOW 0 -2 110 Left 2
SYMATTR Value 47m
SYMATTR InstName L2
SYMATTR Type ind
SYMBOL res 400 64 R0
SYMATTR InstName R1
SYMATTR Value 8
SYMBOL res 192 512 R0
SYMATTR InstName R2
SYMATTR Value 1k
SYMBOL ind2 -560 272 M180
WINDOW 0 -52 72 Left 2
WINDOW 3 -61 33 Left 2
SYMATTR InstName L3
SYMATTR Value 300H
SYMATTR Type ind
SYMATTR SpiceLine Rser=680
SYMBOL Misc\\triode -544 368 R0
WINDOW 3 -13 77 Left 2
SYMATTR Value 6SN7
SYMATTR InstName U2
SYMBOL cap -640 -16 R0
WINDOW 0 41 25 Left 2
WINDOW 3 34 48 Left 2
SYMATTR InstName C4
SYMATTR Value 470µ
SYMBOL res -1024 352 R90
WINDOW 0 0 56 VBottom 2
WINDOW 3 32 56 VTop 2
SYMATTR InstName R10
SYMATTR Value 100
SYMBOL Misc\\signal -1552 480 R0
WINDOW 3 -54 118 Left 2
WINDOW 123 24 44 Left 2
WINDOW 39 0 0 Left 0
SYMATTR Value SINE(0 {V_pk} {freq})
SYMATTR Value2 AC {V_AC}
SYMATTR InstName V2
SYMBOL voltage -336 -16 R0
WINDOW 123 0 0 Left 0
WINDOW 39 0 0 Left 0
WINDOW 0 -10 59 Left 2
SYMATTR InstName V4
SYMATTR Value 300
SYMBOL res 192 352 R90
WINDOW 0 0 56 VBottom 2
WINDOW 3 32 56 VTop 2
SYMATTR InstName R13
SYMATTR Value 1k
SYMBOL res -400 -48 R90
WINDOW 0 0 56 VBottom 2
WINDOW 3 32 56 VTop 2
SYMATTR InstName R15
SYMATTR Value 470R
SYMBOL cap -48 352 R90
WINDOW 0 0 32 VBottom 2
WINDOW 3 32 32 VTop 2
SYMATTR InstName C1
SYMATTR Value 0.47µ
SYMBOL res -592 512 R0
SYMATTR InstName R21
SYMATTR Value 1k
SYMBOL res -848 464 R0
SYMATTR InstName R5
SYMATTR Value 100k
SYMBOL Misc\\triode -352 368 R0
SYMATTR InstName U3
SYMATTR Value 6SN7
SYMBOL Misc\\signal -1552 272 R0
WINDOW 3 -230 -115 Left 2
WINDOW 123 0 0 Left 0
WINDOW 39 0 0 Left 0
SYMATTR Value PULSE({0-(V_pk)} {V_pk} 0 20n 20n {.5/freq} {1/freq})
SYMATTR InstName V5
SYMBOL cap 304 544 R0
SYMATTR InstName C3
SYMATTR Value 220µ
SYMBOL res -672 352 R90
WINDOW 0 0 56 VBottom 2
WINDOW 3 32 56 VTop 2
SYMATTR InstName R3
SYMATTR Value 1k
SYMBOL cap -464 544 R0
SYMATTR InstName C2
SYMATTR Value 220µ
SYMBOL res 0 512 R0
SYMATTR InstName R4
SYMATTR Value 100k
TEXT -1728 824 Left 2 !.tran 0 50m 35m\n;.ac dec 200 10 100k\n.options plotwinsize=0\n.four {freq} V(load)\n.four {freq} V(Vg2)
TEXT 248 24 Left 2 ;10K : 8 ohm
TEXT -632 128 Left 2 ;50mA
TEXT -1760 1104 Left 2 !*\n* Generic triode model: 6SN7\n* Copyright 2003--2008 by Ayumi Nakabayashi, All rights reserved.\n* Version 3.10, Generated on Sat Mar  8 22:40:58 2008\n*            Plate\n*            | Grid\n*            | | Cathode\n*            | | |\n.SUBCKT 6SN7 A G K\nBGG   GG   0 V=V(G,K)+0.54900933\nBM1   M1   0 V=(0.020494606*(URAMP(V(A,K))+1e-10))**-0.76277031\nBM2   M2   0 V=(0.66290422*(URAMP(V(GG)+URAMP(V(A,K))/16.448024)+1e-10))**2.2627703\nBP    P    0 V=0.0012465111*(URAMP(V(GG)+URAMP(V(A,K))/24.812067)+1e-10)**1.5\nBIK   IK   0 V=U(V(GG))*V(P)+(1-U(V(GG)))*0.00074417047*V(M1)*V(M2)\nBIG   IG   0 V=0.0003834058*URAMP(V(G,K))**1.5*(URAMP(V(G,K))/(URAMP(V(A,K))+URAMP(V(G,K)))*1.2+0.4)\nBIAK  A    K I=URAMP(V(IK,IG)-URAMP(V(IK,IG)-(0.0006816103*URAMP(V(A,K))**1.5)))+1e-10*V(A,K)\nBIGK  G    K I=V(IG)\n* CAPS\nCGA   G    A 4p\nCGK   G    K 3p\nCAK   A    K 1.2p\n.ENDS
TEXT -232 1056 Left 2 !* Generic triode model: 211\n* Copyright 2003--2008 by Ayumi Nakabayashi, All rights reserved.\n* Version 3.10, Generated on Sat Mar  8 22:41:51 2008\n*           Plate\n*           | Grid\n*           | | Cathode\n*           | | |\n.SUBCKT 211 A G K\nBGG   GG   0 V=V(G,K)+1\nBM1   M1   0 V=(0.0021297199*(URAMP(V(A,K))+1e-10))**-0.038461562\nBM2   M2   0 V=(0.97499998*(URAMP(V(GG)+URAMP(V(A,K))/11.73864)+1e-10))**1.5384616\nBP    P    0 V=0.00045306372*(URAMP(V(GG)+URAMP(V(A,K))/12.039631)+1e-10)**1.5\nBIK   IK   0 V=U(V(GG))*V(P)+(1-U(V(GG)))*0.00039351788*V(M1)*V(M2)\nBIG   IG   0 V=0.00011014965*URAMP(V(G,K))**1.5*(URAMP(V(G,K))/(URAMP(V(A,K))+URAMP(V(G,K)))*1.2+0.4)\nBIAK  A    K I=URAMP(V(IK,IG)-URAMP(V(IK,IG)-(0.00041468102*URAMP(V(A,K))**1.5)))+1e-10*V(A,K)\nBIGK  G    K I=V(IG)\n* CAPS\nCGA   G    A 14p\nCGK   G    K 5.4p\nCAK   A    K 4.8p\n.ENDS
TEXT -504 232 Left 2 ;DCR 680 ohms
TEXT 152 152 Left 2 ;DCR 277\n ohms
TEXT 256 200 Left 2 !K2  L1  L2  .999
TEXT -1696 664 Left 2 !.param freq=1k
TEXT -1696 696 Left 2 !.param V_pk=1 V_AC=1
TEXT -1672 232 Left 3 ;SIGNAL GENERATOR
TEXT -1696 728 Left 2 ;Edit the .param lines\nto show frequency\nor voltage
TEXT -1248 416 Left 2 ;Edit to show \nsine or square \nwave input
RECTANGLE Normal 896 1792 -1824 -208
RECTANGLE Normal -1744 192 -1408 784 1
RECTANGLE Normal -1136 480 -1264 320 1
