Version 4
SHEET 1 2124 1796
WIRE -896 -112 -960 -112
WIRE -848 -112 -896 -112
WIRE -32 -112 -768 -112
WIRE -960 -96 -960 -112
WIRE 688 -64 240 -64
WIRE -240 -32 -320 -32
WIRE -192 -32 -240 -32
WIRE -32 -32 -32 -112
WIRE -32 -32 -112 -32
WIRE -320 -16 -320 -32
WIRE -960 0 -960 -32
WIRE -32 0 -32 -32
WIRE -320 64 -320 48
WIRE 240 80 240 -64
WIRE 416 80 320 80
WIRE 496 80 416 80
WIRE -32 96 -32 80
WIRE -896 160 -896 -112
WIRE 272 160 272 80
WIRE 288 160 288 80
WIRE 368 160 320 160
WIRE 416 160 368 160
WIRE -240 176 -240 -32
WIRE 368 208 368 160
WIRE -208 256 -208 176
WIRE -1504 272 -1552 272
WIRE -400 272 -416 272
WIRE -1552 288 -1552 272
WIRE -896 288 -896 240
WIRE -656 288 -896 288
WIRE -240 288 -240 256
WIRE -48 288 -240 288
WIRE 176 288 160 288
WIRE 688 304 688 -64
WIRE -240 320 -240 288
WIRE -48 320 -48 288
WIRE 240 320 240 160
WIRE -896 336 -896 288
WIRE -656 368 -656 288
WIRE -496 368 -656 368
WIRE -400 368 -400 272
WIRE -400 368 -432 368
WIRE -384 368 -400 368
WIRE -288 368 -304 368
WIRE 176 368 176 288
WIRE 192 368 176 368
WIRE -1184 384 -1216 384
WIRE -1072 384 -1104 384
WIRE -1040 384 -1072 384
WIRE -944 384 -960 384
WIRE -1552 416 -1552 368
WIRE -400 432 -400 368
WIRE -176 432 -176 368
WIRE -176 432 -400 432
WIRE 96 432 96 368
WIRE 96 432 64 432
WIRE -1488 464 -1552 464
WIRE -928 464 -928 432
WIRE -672 464 -928 464
WIRE -272 464 -272 416
WIRE -80 464 -80 416
WIRE -80 464 -272 464
WIRE -1072 480 -1072 384
WIRE -928 480 -928 464
WIRE -400 480 -400 432
WIRE -272 480 -272 464
WIRE -1552 496 -1552 464
WIRE 32 512 32 432
WIRE 96 512 64 512
WIRE -672 528 -672 464
WIRE 208 528 208 416
WIRE 96 560 96 512
WIRE -928 576 -928 560
WIRE -864 576 -928 576
WIRE -928 592 -928 576
WIRE -1552 624 -1552 576
WIRE -1072 672 -1072 560
WIRE -928 672 -1072 672
WIRE -672 672 -672 592
WIRE -672 672 -928 672
WIRE -400 672 -400 640
WIRE -400 672 -672 672
WIRE -272 672 -272 560
WIRE -272 672 -400 672
WIRE 96 672 96 640
WIRE 96 672 -272 672
WIRE 208 672 208 608
WIRE 208 672 96 672
WIRE 688 672 688 384
WIRE 688 672 208 672
WIRE 208 720 208 672
FLAG 368 208 0
FLAG 496 80 load
IOPIN 496 80 Out
FLAG 208 720 0
FLAG -32 96 0
FLAG -960 0 0
FLAG -320 64 0
FLAG 160 288 Vg3
IOPIN 160 288 In
FLAG -416 272 Vg2
IOPIN -416 272 In
FLAG -1552 624 0
FLAG -1552 416 0
FLAG -1504 272 square
IOPIN -1504 272 Out
FLAG -1488 464 sine
IOPIN -1488 464 Out
FLAG -1216 384 sine
IOPIN -1216 384 In
SYMBOL voltage 688 288 R0
WINDOW 123 0 0 Left 0
WINDOW 39 0 0 Left 0
WINDOW 0 -7 57 Left 2
SYMATTR InstName V1
SYMATTR Value 1050
SYMBOL Misc\\triode 240 368 R0
SYMATTR InstName U1
SYMATTR Value 211
SYMBOL ind2 224 176 M180
WINDOW 0 -35 75 Left 2
WINDOW 3 -36 54 Left 2
SYMATTR InstName L1
SYMATTR Value 60
SYMATTR Type ind
SYMATTR SpiceLine Rser=277 Cpar=400p
SYMBOL ind2 336 176 R180
WINDOW 3 -31 54 Left 2
WINDOW 0 -2 110 Left 2
SYMATTR Value 47m
SYMATTR InstName L2
SYMATTR Type ind
SYMBOL res 400 64 R0
SYMATTR InstName R1
SYMATTR Value 8
SYMBOL res 192 512 R0
SYMATTR InstName R2
SYMATTR Value 2
SYMBOL ind2 -256 272 M180
WINDOW 0 -52 72 Left 2
WINDOW 3 -61 33 Left 2
SYMATTR InstName L3
SYMATTR Value 40H
SYMATTR Type ind
SYMATTR SpiceLine Rser=680
SYMBOL ind2 80 528 R180
WINDOW 3 36 40 Left 2
WINDOW 0 36 80 Left 2
SYMATTR Value 10
SYMATTR InstName L4
SYMATTR Type ind
SYMATTR SpiceLine Rser=300
SYMBOL Misc\\triode -240 368 R0
WINDOW 3 -13 77 Left 2
SYMATTR Value 5687
SYMATTR InstName U2
SYMBOL res -1088 464 R0
SYMATTR InstName R7
SYMATTR Value 100K
SYMBOL res -752 -128 R90
WINDOW 0 0 56 VBottom 2
WINDOW 3 32 56 VTop 2
SYMATTR InstName R8
SYMATTR Value 1000
SYMBOL cap -336 -16 R0
WINDOW 0 41 25 Left 2
WINDOW 3 34 48 Left 2
SYMATTR InstName C4
SYMATTR Value 22µ
SYMBOL res -1088 368 R90
WINDOW 0 0 56 VBottom 2
WINDOW 3 32 56 VTop 2
SYMATTR InstName R10
SYMATTR Value 100
SYMBOL Misc\\signal -1552 480 R0
WINDOW 3 -54 118 Left 2
WINDOW 123 0 0 Left 0
WINDOW 39 0 0 Left 0
SYMATTR Value SINE(0 {V_pk} {freq})
SYMATTR InstName V2
SYMBOL voltage 96 544 R0
WINDOW 123 0 0 Left 0
WINDOW 39 0 0 Left 0
WINDOW 3 -61 -3 Left 2
SYMATTR Value -61
SYMATTR InstName V3
SYMBOL voltage -32 -16 R0
WINDOW 123 0 0 Left 0
WINDOW 39 0 0 Left 0
WINDOW 0 -10 59 Left 2
SYMATTR InstName V4
SYMATTR Value 270
SYMBOL res -288 352 R90
WINDOW 0 0 56 VBottom 2
WINDOW 3 32 56 VTop 2
SYMATTR InstName R3
SYMATTR Value 510
SYMBOL cap -976 -96 R0
SYMATTR InstName C6
SYMATTR Value 22µ
SYMBOL Misc\\triode -896 384 R0
SYMATTR InstName U4
SYMATTR Value 6SL7
SYMBOL res 192 352 R90
WINDOW 0 0 56 VBottom 2
WINDOW 3 32 56 VTop 2
SYMATTR InstName R13
SYMATTR Value 100
SYMBOL res -944 368 R90
WINDOW 0 0 56 VBottom 2
WINDOW 3 32 56 VTop 2
SYMATTR InstName R14
SYMATTR Value 360
SYMBOL res -96 -48 R90
WINDOW 0 0 56 VBottom 2
WINDOW 3 32 56 VTop 2
SYMATTR InstName R15
SYMATTR Value 5.1K
SYMBOL cap -432 352 R90
WINDOW 0 0 32 VBottom 2
WINDOW 3 32 32 VTop 2
SYMATTR InstName C1
SYMATTR Value 0.22µ
SYMBOL cap -688 528 R0
SYMATTR InstName C2
SYMATTR Value 470µ
SYMBOL res -288 464 R0
SYMATTR InstName R21
SYMATTR Value 2
SYMBOL voltage -400 544 R0
WINDOW 123 0 0 Left 0
WINDOW 39 0 0 Left 0
SYMATTR InstName V6
SYMATTR Value -9.8
SYMBOL res -416 464 R0
SYMATTR InstName R5
SYMATTR Value 470K
SYMBOL res -944 576 R0
SYMATTR InstName R24
SYMATTR Value 2
SYMBOL res -944 464 R0
SYMATTR InstName R25
SYMATTR Value 910
SYMBOL res -912 144 R0
SYMATTR InstName R11
SYMATTR Value 150K
SYMBOL Misc\\triode -48 368 R0
SYMATTR InstName U3
SYMATTR Value 5687
SYMBOL res -80 352 R90
WINDOW 0 0 56 VBottom 2
WINDOW 3 32 56 VTop 2
SYMATTR InstName R4
SYMATTR Value 510
SYMBOL Misc\\signal -1552 272 R0
WINDOW 3 -230 -115 Left 2
WINDOW 123 0 0 Left 0
WINDOW 39 0 0 Left 0
SYMATTR Value PULSE({0-(V_pk)} {V_pk} 0 20n 20n {.5/freq} {1/freq})
SYMATTR InstName V5
TEXT -1728 824 Left 2 !.tran 0 50m 35m
TEXT 248 24 Left 2 ;10K : 8 ohm
TEXT -328 128 Left 2 ;50mA
TEXT -1240 776 Left 2 !* Generic triode model: 5687\n* Copyright 2003--2008 by Ayumi Nakabayashi, All rights reserved.\n* Version 3.10, Generated on Sat Mar  8 22:42:01 2008\n*            Plate\n*            | Grid\n*            | | Cathode\n*            | | |\n.SUBCKT 5687 A G K\nBGG   GG   0 V=V(G,K)+0.35624804\nBM1   M1   0 V=(0.022532918*(URAMP(V(A,K))+1e-10))**-0.73087992\nBM2   M2   0 V=(0.67238043*(URAMP(V(GG)+URAMP(V(A,K))/14.539598)+1e-10))**2.2308799\nBP    P    0 V=0.0048744976*(URAMP(V(GG)+URAMP(V(A,K))/21.624065)+1e-10)**1.5\nBIK   IK   0 V=U(V(GG))*V(P)+(1-U(V(GG)))*0.0028821468*V(M1)*V(M2)\nBIG   IG   0 V=0.0024372488*URAMP(V(G,K))**1.5*(URAMP(V(G,K))/(URAMP(V(A,K))+URAMP(V(G,K)))*1.2+0.4)\nBIAK  A    K I=URAMP(V(IK,IG)-URAMP(V(IK,IG)-(0.0027792585*URAMP(V(A,K))**1.5)))+1e-10*V(A,K)\nBIGK  G    K I=V(IG)\n* CAPS\nCGA   G    A 4p\nCGK   G    K 4p\nCAK   A    K 0.6p\n.ENDS
TEXT -48 760 Left 2 !* Generic triode model: 211\n* Copyright 2003--2008 by Ayumi Nakabayashi, All rights reserved.\n* Version 3.10, Generated on Sat Mar  8 22:41:51 2008\n*           Plate\n*           | Grid\n*           | | Cathode\n*           | | |\n.SUBCKT 211 A G K\nBGG   GG   0 V=V(G,K)+1\nBM1   M1   0 V=(0.0021297199*(URAMP(V(A,K))+1e-10))**-0.038461562\nBM2   M2   0 V=(0.97499998*(URAMP(V(GG)+URAMP(V(A,K))/11.73864)+1e-10))**1.5384616\nBP    P    0 V=0.00045306372*(URAMP(V(GG)+URAMP(V(A,K))/12.039631)+1e-10)**1.5\nBIK   IK   0 V=U(V(GG))*V(P)+(1-U(V(GG)))*0.00039351788*V(M1)*V(M2)\nBIG   IG   0 V=0.00011014965*URAMP(V(G,K))**1.5*(URAMP(V(G,K))/(URAMP(V(A,K))+URAMP(V(G,K)))*1.2+0.4)\nBIAK  A    K I=URAMP(V(IK,IG)-URAMP(V(IK,IG)-(0.00041468102*URAMP(V(A,K))**1.5)))+1e-10*V(A,K)\nBIGK  G    K I=V(IG)\n* CAPS\nCGA   G    A 14p\nCGK   G    K 5.4p\nCAK   A    K 4.8p\n.ENDS
TEXT -1248 1312 Left 2 !* Generic triode model: 6SL7\n* Copyright 2003--2008 by Ayumi Nakabayashi, All rights reserved.\n* Version 3.10, Generated on Sat Mar  8 22:40:56 2008\n*            Plate\n*            | Grid\n*            | | Cathode\n*            | | |\n.SUBCKT 6SL7 A G K\nBGG   GG   0 V=V(G,K)+0.34892993\nBM1   M1   0 V=(0.00093777395*(URAMP(V(A,K))+1e-10))**-0.098159943\nBM2   M2   0 V=(0.9385794*(URAMP(V(GG)+URAMP(V(A,K))/65.496168)+1e-10))**1.5981599\nBP    P    0 V=0.00080166786*(URAMP(V(GG)+URAMP(V(A,K))/69.782235)+1e-10)**1.5\nBIK   IK   0 V=U(V(GG))*V(P)+(1-U(V(GG)))*0.00061341966*V(M1)*V(M2)\nBIG   IG   0 V=0.00040083393*URAMP(V(G,K))**1.5*(URAMP(V(G,K))/(URAMP(V(A,K))+URAMP(V(G,K)))*1.2+0.4)\nBIAK  A    K I=URAMP(V(IK,IG)-URAMP(V(IK,IG)-(0.00041812772*URAMP(V(A,K))**1.5)))+1e-10*V(A,K)\nBIGK  G    K I=V(IG)\n* CAPS\nCGA   G    A 2.8p\nCGK   G    K 3.4p\nCAK   A    K 3.8p\n.ENDS
TEXT -504 640 Left 2 ;5687 Bias
TEXT 0 632 Left 2 ;211 Bias
TEXT -200 232 Left 2 ;DCR 680 ohms
TEXT 88 464 Left 2 ;DCR 300\n ohms
TEXT 152 152 Left 2 ;DCR 277\n ohms
TEXT -184 200 Left 2 !K1 L3 L4  .9998
TEXT 256 200 Left 2 !K2  L1  L2  .999
TEXT -1696 664 Left 2 !.param freq=1k
TEXT -1696 696 Left 2 !.param V_pk=0.1
TEXT -1672 232 Left 3 ;SIGNAL GENERATOR
TEXT -1696 728 Left 2 ;Edit the .param lines\nto show frequency\nor voltage
TEXT -1312 432 Left 2 ;Edit to show \nsine or square \nwave input
RECTANGLE Normal 896 1792 -1824 -208
RECTANGLE Normal -1744 192 -1408 784 1
RECTANGLE Normal -1200 496 -1328 336 1
