**************************************
*      Model Generated by MODPEX     *
*Copyright(c) Symmetry Design Systems*
*         All Rights Reserved        *
*    UNPUBLISHED LICENSED SOFTWARE   *
*   Contains Proprietary Information *
*      Which is The Property of      *
*     SYMMETRY OR ITS LICENSORS      *
*Commercial Use or Resale Restricted *
*   by Symmetry License Agreement    *
**************************************
* Model generated on Sep 16, 18
* MODEL FORMAT: PSpice
* Rev1, Updated hfe vs. temperature
.MODEL Qbc856bdw1 pnp
+IS=7.62814e-15 BF=252.408 NF=0.953303 VAF=10
+IKF=0.112325 ISE=9.87855e-13 NE=1.7762 BR=0.1
+NR=1.5 VAR=100 IKR=1.12325 ISC=9.87855e-13
+NC=1.20731 RB=0.1 IRB=0.1 RBM=0.001
+RE=0.139259 RC=0.696297 XTB=1.15638 XTI=4
+EG=1.05 CJE=2.38487e-11 VJE=0.668275 MJE=0.330201
+TF=5.64893e-10 XTF=7.03178 VTF=2.78911 ITF=0.390456
+CJC=1.42063e-11 VJC=0.503381 MJC=0.499188 XCJC=0.907873
+FC=0.8 CJS=0 VJS=0.75 MJS=0.5
+TR=1e-07 PTF=0 KF=0 AF=1


