Version 4
SHEET 1 1056 840
WIRE -272 -320 -768 -320
WIRE 16 -320 -208 -320
WIRE -272 -224 -512 -224
WIRE 16 -224 16 -320
WIRE 16 -224 -208 -224
WIRE -768 -208 -768 -320
WIRE -768 -208 -896 -208
WIRE -688 -208 -768 -208
WIRE -512 -208 -512 -224
WIRE -512 -208 -608 -208
WIRE -512 -176 -512 -208
WIRE -128 -144 -240 -144
WIRE 16 -144 16 -224
WIRE 16 -144 -64 -144
WIRE -896 -128 -896 -208
WIRE -512 -64 -512 -96
WIRE -448 -64 -512 -64
WIRE -240 -48 -240 -144
WIRE -240 -48 -336 -48
WIRE -144 -48 -240 -48
WIRE -448 -32 -448 -64
WIRE -144 -16 -144 -48
WIRE -896 0 -896 -48
WIRE -512 48 -512 -64
WIRE -768 96 -768 -208
WIRE -656 96 -768 96
WIRE -592 96 -656 96
WIRE -448 96 -448 32
WIRE -448 96 -496 96
WIRE -416 96 -448 96
WIRE -336 96 -336 -48
WIRE -272 96 -336 96
WIRE 16 96 16 -144
WIRE 16 96 -16 96
WIRE 256 96 16 96
WIRE 336 96 256 96
WIRE 400 96 400 48
WIRE 400 96 336 96
WIRE 656 96 400 96
WIRE -656 112 -656 96
WIRE 400 144 400 96
WIRE -336 176 -336 96
WIRE -768 192 -768 96
WIRE 16 224 16 96
WIRE -656 240 -656 192
WIRE -144 240 -144 208
WIRE -144 240 -240 240
WIRE 400 240 400 208
WIRE 256 256 256 96
WIRE -336 288 -336 240
WIRE -240 288 -240 240
WIRE -144 288 -144 240
WIRE -768 336 -768 256
WIRE -656 336 -656 304
WIRE 336 368 336 96
WIRE -240 416 -240 352
WIRE -144 416 -144 368
WIRE -144 416 -240 416
WIRE 16 416 16 304
WIRE 16 416 -144 416
WIRE 256 416 256 320
WIRE 256 416 16 416
WIRE -144 512 -144 416
WIRE 16 512 16 416
WIRE 336 624 336 448
WIRE 16 640 16 592
WIRE -144 768 -144 576
FLAG -144 768 0
FLAG -336 288 0
FLAG 400 240 0
FLAG -656 336 0
FLAG -768 336 0
FLAG -896 0 0
FLAG 656 96 out
IOPIN 656 96 Out
FLAG 400 48 001
FLAG 16 640 0
FLAG 336 624 0
DATAFLAG 400 96 ""
DATAFLAG -768 -64 ""
SYMBOL LT3080 -144 96 R0
SYMATTR InstName U1
SYMBOL res -592 -224 R90
WINDOW 0 0 56 VBottom 2
WINDOW 3 51 52 VTop 2
SYMATTR InstName R1
SYMATTR Value 100k
SYMBOL res -496 -80 R180
WINDOW 0 36 76 Left 2
WINDOW 3 32 47 Left 2
SYMATTR InstName R2
SYMATTR Value 100
SYMBOL res -432 112 R270
WINDOW 0 40 64 VTop 2
WINDOW 3 0 56 VBottom 2
SYMATTR InstName R3
SYMATTR Value 18
SYMBOL nmos -592 48 M90
WINDOW 3 -93 -13 Left 2
SYMATTR Value STW11NM80
SYMATTR InstName M1
SYMBOL zener -208 -240 R90
WINDOW 0 -4 32 VBottom 2
WINDOW 3 36 32 VTop 2
SYMATTR InstName D2
SYMATTR Value BZX84B6V8LY
SYMATTR Description Diode
SYMATTR Type diode
SYMBOL zener -432 32 R180
WINDOW 0 24 64 Left 2
WINDOW 3 -66 109 Left 2
SYMATTR InstName D3
SYMATTR Value BZX84C12L
SYMATTR Description Diode
SYMATTR Type diode
SYMBOL cap 384 144 R0
SYMATTR InstName C2
SYMATTR Value 2.2µ
SYMBOL cap -352 176 R0
SYMATTR InstName C3
SYMATTR Value 1µ
SYMBOL cap -784 192 R0
SYMATTR InstName C5
SYMATTR Value 1µ
SYMBOL cap -672 240 R0
WINDOW 3 30 55 Left 2
SYMATTR Value 10µ
SYMATTR InstName C6
SYMBOL res -672 96 R0
SYMATTR InstName R10
SYMATTR Value 1
SYMBOL voltage -896 -144 R0
WINDOW 123 0 0 Left 0
WINDOW 39 0 0 Left 0
SYMATTR InstName V1
SYMATTR Value 340
SYMBOL diode 272 320 R180
WINDOW 0 24 64 Left 2
WINDOW 3 24 0 Left 2
SYMATTR InstName D1
SYMATTR Value MUR460
SYMBOL res -160 272 R0
SYMATTR InstName R4
SYMATTR Value 100k
SYMBOL cap -160 512 R0
SYMATTR InstName C1
SYMATTR Value 100n
SYMBOL cap -256 288 R0
SYMATTR InstName C4
SYMATTR Value 2.2µ
SYMBOL res 0 208 R0
SYMATTR InstName R5
SYMATTR Value 1k
SYMBOL res 0 496 R0
SYMATTR InstName R6
SYMATTR Value 200k
SYMBOL res 320 352 R0
SYMATTR InstName Rload1
SYMATTR Value 100k
TEXT 568 -48 Left 2 !.op
TEXT 576 -16 Left 2 !;.ac oct 100 10 10e6
TEXT 792 184 Left 2 !.dc oct V1 100 500 10
