Version 4
SHEET 1 2620 1748
WIRE -384 -352 -512 -352
WIRE -208 -352 -384 -352
WIRE -384 -336 -384 -352
WIRE -432 -256 -448 -256
WIRE -208 -208 -208 -352
WIRE 208 -208 16 -208
WIRE 208 -144 208 -208
WIRE -448 -128 -448 -256
WIRE -384 -128 -384 -160
WIRE -384 -128 -448 -128
WIRE -352 -128 -384 -128
WIRE -256 -128 -272 -128
WIRE -384 -32 -384 -128
WIRE -320 -32 -384 -32
WIRE -208 -32 -208 -112
WIRE -208 -32 -256 -32
WIRE -144 -32 -208 -32
WIRE 16 -32 16 -208
WIRE 16 -32 -64 -32
WIRE 80 -32 16 -32
WIRE 400 -32 336 -32
WIRE 448 -32 400 -32
WIRE 560 -32 448 -32
WIRE 672 -32 560 -32
WIRE -384 32 -384 -32
WIRE -384 128 -384 96
WIRE 448 128 448 -32
WIRE 448 128 -384 128
WIRE -512 160 -512 -352
WIRE 208 160 208 80
WIRE 448 160 448 128
WIRE 560 160 560 -32
WIRE 672 160 672 -32
WIRE 16 176 16 -32
WIRE 208 272 208 240
WIRE 320 272 208 272
WIRE 448 272 448 240
WIRE 448 272 320 272
WIRE 448 304 448 272
WIRE 208 320 208 272
WIRE -512 432 -512 240
WIRE 16 432 16 240
WIRE 16 432 -512 432
WIRE 208 432 208 384
WIRE 208 432 16 432
WIRE 448 432 448 384
WIRE 448 432 208 432
WIRE 560 432 560 224
WIRE 560 432 448 432
WIRE 672 432 672 240
WIRE 672 432 560 432
WIRE -512 464 -512 432
FLAG -512 464 0
FLAG 400 -32 Vout
FLAG 320 272 Vadj
SYMBOL res -48 -48 R90
WINDOW 0 0 56 VBottom 2
WINDOW 3 32 56 VTop 2
SYMATTR InstName R2
SYMATTR Value 1
SYMBOL res 432 144 R0
SYMATTR InstName R3
SYMATTR Value 1k
SYMBOL res 432 288 R0
SYMATTR InstName R5
SYMATTR Value 200k
SYMBOL voltage -512 144 R0
WINDOW 123 24 124 Left 2
WINDOW 39 0 0 Left 2
SYMATTR Value2 AC 1
SYMATTR InstName V1
SYMATTR Value 500
SYMBOL LT3080 208 -32 R0
SYMATTR InstName U1
SYMBOL res 192 144 R0
SYMATTR InstName R4
SYMATTR Value 100k
SYMBOL cap 544 160 R0
SYMATTR InstName C2
SYMATTR Value 2.2µ
SYMBOL res 656 144 R0
SYMATTR InstName Rload
SYMATTR Value 100k
SYMBOL cap 0 176 R0
SYMATTR InstName C1
SYMATTR Value 1µ
SYMBOL zener -256 -48 R90
WINDOW 0 0 32 VBottom 2
WINDOW 3 32 32 VTop 2
SYMATTR InstName D1
SYMATTR Value BZX84B8V2LY
SYMATTR Description Diode
SYMATTR Type diode
SYMBOL nmos -256 -208 R0
WINDOW 3 59 -9 Left 2
WINDOW 0 62 -36 Left 2
SYMATTR Value STP8NM60
SYMATTR InstName M2
SYMBOL zener -368 96 R180
WINDOW 0 24 64 Left 2
WINDOW 3 24 0 Left 2
SYMATTR InstName D2
SYMATTR Value BZX84B8V2LY
SYMATTR Description Diode
SYMATTR Type diode
SYMBOL res -368 -112 R270
WINDOW 0 32 56 VTop 2
WINDOW 3 0 56 VBottom 2
SYMATTR InstName R7
SYMATTR Value 220
SYMBOL res -400 -256 R0
SYMATTR InstName R1
SYMATTR Value 1k
SYMBOL nmos -432 -336 R0
WINDOW 3 56 60 Left 2
SYMATTR Value LND150b
SYMATTR InstName M1
SYMBOL cap 192 320 R0
SYMATTR InstName C3
SYMATTR Value 100n
TEXT -144 -368 Left 2 !;op
TEXT -144 -336 Left 2 !.tran 1
TEXT -144 -304 Left 2 !;ac dec 20 1 10Meg
TEXT -144 -272 Left 2 !.MODEL LND150b VDMOS (Rd=450 VTO=-1.35 Kp=2m Cgdmax=1p Cgdmin=0.25p Cgs=7.5p)
