*
* Generic diode model: 2B7
* Copyright 2007--2008 by Ayumi Nakabayashi, All rights reserved.
* Version 3.10, Generated on Sat Mar  8 23:08:31 2008
.SUBCKT 2B7 A K
BIA A K I=URAMP(V(A,K))**1.5 * 6.8041382e-05
.ENDS
