*
* Generic diode model: 5U4G
* Copyright 2007--2008 by Ayumi Nakabayashi, All rights reserved.
* Version 3.10, Generated on Sat Mar  8 23:08:31 2008
.SUBCKT 5U4G A K
BIA A K I=URAMP(V(A,K))**1.5 * 0.00077090969
.ENDS
