*
* Generic diode model: 6SQ7D
* Copyright 2007--2008 by Ayumi Nakabayashi, All rights reserved.
* Version 3.10, Generated on Sat Mar  8 23:08:31 2008
.SUBCKT 6SQ7D A K
BIA A K I=URAMP(V(A,K))**1.5 * 6.3245553e-05
.ENDS
