*
*   F-483
*
.SUBCKT F-483 P1 B1 B2 P2 S1 S0
* Primary inductance (p-p 5000ohm 27.6666666666667H)
L11 P1 11 6.91666666666667H
L12 12 P2 6.91666666666667H
* Primary DC resistance
R11 11 B1 149
R12 B2 12 149
* Primary stray capacitance
CP P1 P2 5.34394549732915e-10
* Secondary inductance (8ohm)
L13 S1 21 0.0504378278746633H
* Secondary DC resistance
R13 S0 21 0.572
* coupling factor
K1 L11 L13 0.999932697982668
K2 L12 L13 0.999932697982668
K3 L11 L12 0.999932697982668
.ENDS
