*
*   F-486
*
.SUBCKT F-486 P1 B1 B2 P2 S1 S0
* Primary inductance (p-p 10000ohm 33.3333333333333H)
L11 P1 11 8.33333333333333H
L12 12 P2 8.33333333333333H
* Primary DC resistance
R11 11 B1 247.5
R12 B2 12 247.5
* Primary stray capacitance
CP P1 P2 5.13375079554178e-10
* Secondary inductance (8ohm)
L13 S1 21 0.0300789058390321H
* Secondary DC resistance
R13 S0 21 0.577
* coupling factor
K1 L11 L13 0.99985756581163
K2 L12 L13 0.99985756581163
K3 L11 L12 0.99985756581163
.ENDS
