*
*   F-682
*
.SUBCKT F-682 P1 B1 B2 P2 S1 S0
* Primary inductance (p-p 3500ohm 33.3333333333333H)
L11 P1 11 8.33333333333333H
L12 12 P2 8.33333333333333H
* Primary DC resistance
R11 11 B1 117
R12 B2 12 117
* Primary stray capacitance
CP P1 P2 5.52399786225324e-10
* Secondary inductance (8ohm)
L13 S1 21 0.0855378648703817H
* Secondary DC resistance
R13 S0 21 0.381
* coupling factor
K1 L11 L13 0.999961837737307
K2 L12 L13 0.999961837737307
K3 L11 L12 0.999961837737307
.ENDS
