*
*   F-684
*
.SUBCKT F-684 P1 B1 B2 P2 S1 S0
* Primary inductance (p-p 6600ohm 116.666666666667H)
L11 P1 11 29.1666666666667H
L12 12 P2 29.1666666666667H
* Primary DC resistance
R11 11 B1 163.5
R12 B2 12 163.5
* Primary stray capacitance
CP P1 P2 5.85888177310723e-10
* Secondary inductance (8ohm)
L13 S1 21 0.156001912960306H
* Secondary DC resistance
R13 S0 21 0.388
* coupling factor
K1 L11 L13 0.999963447418763
K2 L12 L13 0.999963447418763
K3 L11 L12 0.999963447418763
.ENDS
