*
*   F-683
*
.SUBCKT F-683 P1 B1 B2 P2 S1 S0
* Primary inductance (p-p 5250ohm 33.3333333333333H)
L11 P1 11 8.33333333333333H
L12 12 P2 8.33333333333333H
* Primary DC resistance
R11 11 B1 143
R12 B2 12 143
* Primary stray capacitance
CP P1 P2 5.74994752410728e-10
* Secondary inductance (8ohm)
L13 S1 21 0.0562852538275584H
* Secondary DC resistance
R13 S0 21 0.382
* coupling factor
K1 L11 L13 0.999960567117992
K2 L12 L13 0.999960567117992
K3 L11 L12 0.999960567117992
.ENDS
