*
*   F-685
*
.SUBCKT F-685 P1 B1 B2 P2 S1 S0
* Primary inductance (p-p 8000ohm 166.666666666667H)
L11 P1 11 41.6666666666667H
L12 12 P2 41.6666666666667H
* Primary DC resistance
R11 11 B1 202
R12 B2 12 202
* Primary stray capacitance
CP P1 P2 5.02976414355197e-10
* Secondary inductance (8ohm)
L13 S1 21 0.183912585571353H
* Secondary DC resistance
R13 S0 21 0.382
* coupling factor
K1 L11 L13 0.999975963254026
K2 L12 L13 0.999975963254026
K3 L11 L12 0.999975963254026
.ENDS
