*
*   TAMURA OPT F2021
*
.SUBCKT F2021 P1 B1 B2 P2 S8 S0
* 1次インダクタンス(p-p 5kohm 150H)
L11 P1 12 30.92H
L12 13 P2 30.92H
* 1次巻線抵抗
R11 12 B1 64.7
R12 B2 13 73.5
* 1次巻線浮遊容量
C11 P1 B1 1126p
C12 P2 B2 1126p
* 鉄損
RI1 P1 12 158.4k
RI2 P2 13 158.4k
* 2次インダクタンス(8ohm)
L2 S8 16 0.208279
* 2次巻線抵抗
R13 S0 16 0.25
* 結合係数
K1 L11 L2  0.9999714
K2 L12 L2  0.9999714
K3 L11 L12 0.99994
.ENDS
