.model IXTY08N100D2 Vdmos vto=-2.5 kp=1 Rg=5 lambda=50m Cgs=320p Cgdmin=5.5p Cgdmax=300p Cjo=600p Rs=1 Rd=5 BV=1000 nbv=20 ksubthres=.2 mtriode=0.15 Theta=0.5 TT=1u mfg=Ixys Vds=1000
.model IXTP08N100D2 Vdmos vto=-2.5 kp=1 Rg=5 lambda=50m Cgs=320p Cgdmin=5.5p Cgdmax=300p Cjo=600p Rs=1 Rd=5 BV=1000 nbv=20 ksubthres=.2 mtriode=0.15 Theta=0.5 TT=1u mfg=Ixys Vds=1000
.model IXTY1R6N100D2 Vdmos vto=-2.5 kp=2 Rg=2.5 lambda=50m Cgs=640p Cgdmin=11p Cgdmax=700p Cjo=2n Rs=0.2 Rd=0.5 BV=1000 nbv=20 ksubthres=.2 mtriode=0.5 Theta=0.5 TT=1u mfg=Ixys Vds=1000
.model IXTP1R6N100D2 Vdmos vto=-2.5 kp=2 Rg=2.5 lambda=50m Cgs=640p Cgdmin=11p Cgdmax=700p Cjo=2n Rs=0.2 Rd=0.5 BV=1000 nbv=20 ksubthres=.2 mtriode=0.5 Theta=0.5 TT=1u mfg=Ixys Vds=1000
.model IXTY1R6N50D2 Vdmos vto=-2.5 kp=2 Rg=2.5 lambda=50m Cgs=640p Cgdmin=11p Cgdmax=700p Cjo=2n Rs=0.2 Rd=0.5 BV=500 nbv=10 ksubthres=.2 mtriode=0.5 Theta=0.5 TT=1u mfg=Ixys Vds=500
.model IXTP1R6N50D2 Vdmos vto=-2.5 kp=2 Rg=2.5 lambda=50m Cgs=640p Cgdmin=11p Cgdmax=700p Cjo=2n Rs=0.2 Rd=0.5 BV=500 nbv=10 ksubthres=.2 mtriode=0.5 Theta=0.5 TT=1u mfg=Ixys Vds=500
