**$ENCRYPTED_LIB
**$INTERFACE
* PSpice Model Editor - Version 16.0.0
*$
*LM4040_N
*****************************************************************************
*  (C) Copyright 2013 Texas Instruments Incorporated. All rights reserved.
*****************************************************************************
** This model is designed as an aid for customers of Texas Instruments.
** TI and its licensors and suppliers make no warranties, either expressed
** or implied, with respect to this model, including the warranties of 
** merchantability or fitness for a particular purpose. The model is
** provided solely on an "as is" basis. The entire risk as to its quality
** and performance is with the customer.
*****************************************************************************
*
** Released by: WEBENCH Design Center,Texas Instruments Inc.
* Part: LM4040_N
* Date: 10APR2013
* Model Type: TRANSIENT
* Simulator: PSPICE
* Simulator Version: 16.0.0
* EVM Order Number: N/A
* EVM Users Guide: N/A
* Datasheet: SNOS633G-MAY 2004-REVISED JULY 2012
*
* Model Version: Final 1.00
*
*****************************************************************************
*
* Updates:
*
* Final 1.00
* Release to Web.
*
******************************************************************************
.SUBCKT LM4040_ND10P0  V+ V- PARAMS: TOL=0
$CDNENCSTART
eee8c5c7a2bc4b01f045f303678664e7916da0bae22e8cb0bba041dd67c69ce448ea70148a9ac1670c8926c1ac5057c8ccfcd77bf87ca9dcf25cef0e3d06a158
5352ed9a7eaf74a9706b807646b803715fdf4fcd929a7e1476ab9b6c5a9f74e1faeaa281e22d723ec34c792e9c35872f64fd1dc1cac825af34efd08719e33c92
3724d3f37eeea07f5afe4f8e0010b28d4f812f67b5d83701454e92c4ac0803e0a98283774c731a92333e171463c9f579e901fc834b208bdf1f918957dce1df83
fcfac5a776b3c7daaf14b7c938fb7d38125876ca529fbcd60fa3edc537cd0d17f9715f7ddd5ff139d219e9c8386189186b7be9ce3b7162c067675aabe7040701
64053fbe649decb85afe4f8e0010b28d78bbda26dbc77342318820ea660f51957345d1dbe157591bc34c792e9c35872f64fd1dc1cac825af34efd08719e33c92
a0930926c771b6cd5afe4f8e0010b28da8b4f6ad32f83d265aaab1900850ac2f7345d1dbe157591b006fd8f4a33ce7b78a4864e08227d7045bf1253db2f193c8
252f4c842243ec93adfbfde0a93715cd571b883c7a34092c6af16ebc99a23710ef89349e3b92da539814a4ab907caab017c7b8b6c940ff6b6089153e2e0d24cb
3e357ee55c14488aadfbfde0a93715cde55cefd606b8e73ba0bc3dc52ad2f46f6fb1d233ade4c007a725a4dc88644efc8a4864e08227d7045bf1253db2f193c8
4b85b686fcf7403d0302a8c30efa8edde04124705b9fa056111f24db61775ec0e9ebdf6af31887bf226a7c067aead4e89814a4ab907caab0b823884299b3b871
717cdf892ff6b6ffd05ee9f4a2babc05036aac3408917ef0a7a44656b8ab3cdd478a87bc5b8e6cf93fc4220032af1caca73219e951e49376c4ae50ea1585ba07
e96aaee4f78c19f45afe4f8e0010b28dc094ef2aee302ab2c61bc278adc9ccd4f71d3bc7f7d3e460c34c792e9c35872f64fd1dc1cac825af34efd08719e33c92
904e90e8e5b2fbfd5afe4f8e0010b28df813c9134970ea75fc2e85c1f050ec15478a87bc5b8e6cf93fc4220032af1caca73219e951e49376c4ae50ea1585ba07
4f75e2444c7e47605afe4f8e0010b28d7eb9d962e3af691e2ac242761e3b7763a67e7a96e2ecce82ef89349e3b92da539814a4ab907caab0b823884299b3b871
cec16ac1ee44e4c7706b807646b80371c3ec949a6f44320915c70963aea2cadbae00ac7d1db53cb63ecfb4feaf868f20333e171463c9f579c5ceaab64babcaae
5637fcfd860683a95afe4f8e0010b28d7a25f37a3b4248a2bbc56299c191d6549645e0dd9984026e14ed06343c8ed35588c2e050a9b765bcde059cbc69150d96
0b9df3e93ec616265afe4f8e0010b28d7a85ffc4eb5565632ac242761e3b7763a67e7a96e2ecce823330ba1d5ebc01538a4864e08227d7045bf1253db2f193c8
ccda5ee1e6c26ff65afe4f8e0010b28d504dbe129bb0cf22058e66d55c8e8c33089eb3aee0d92af88a4864e08227d704e7290865b33dd84677571d7de0d4aa5b
705d459f50f7a08c9e031e0d8580ec80ecb26c1d6ad112d145651cfa58d042df9645e0dd9984026e14ed06343c8ed35588c2e050a9b765bcde059cbc69150d96
88d8cffec4b073add48eff679202ff9015c70963aea2cadb8efb6d8b2665435bfa5c51fb57f672089814a4ab907caab017c7b8b6c940ff6b6089153e2e0d24cb
b90e0c5fe970b387adfbfde0a93715cdba29ee0850c7f4034d559955d8a585548c0fab00abef36a9d219e9c8386189186b7be9ce3b7162c067675aabe7040701
7ccb825fdd22996e706b807646b80371f4d44dad3a0250ef462343c94bc963112cebe04b8d65779af45be999de0153f89d94d0c4d7980de1a3089b4abd32a0c7
5bc64a788665fcf906c51131619f1ce83fc4220032af1caca73219e951e493761530a380c4d956f12670fef15c7f24852d115666c16065bcd98ee545e9d85a90
e9dc2a28e35b84aa9814a4ab907caab017c7b8b6c940ff6b06e49ec41c513a3f0d70edbf43dd069e4c4bb0a24449f255a7db25c274251211627be96dbf75f3f1
f966d44174846ac2d48eff679202ff90cb805d6a9019f508c12e9edf33cba287250c9ca925d851739814a4ab907caab017c7b8b6c940ff6b6089153e2e0d24cb
f7bb42a6e0b7b8ea5afe4f8e0010b28d7d9acd0db2ccb2ec8cbc8f3491aea3996fb1d233ade4c007f132712aeba8359364fd1dc1cac825af34efd08719e33c92
4743e78444a105678bf65c1400651a283db875c15925d2f2791c380bdf5797ad3ecfb4feaf868f20333e171463c9f579e901fc834b208bdf1f918957dce1df83
05b3dfb6045ef4bdc9bd7fb4b7e49c4ae8353ef3b6a5b2bd7ed858dc60378db176be17a5d24149f8333e171463c9f579e901fc834b208bdf1f918957dce1df83
86ad213343ec82a9187ab7d105e374c724f7a488c8ac86d755976fbc7c4b2b81ef66f270e2da7d198a4864e08227d704e7290865b33dd84677571d7de0d4aa5b
03edf31e48a16cdc5afe4f8e0010b28d10929b958141caa452528204d6c6df96e7a4c5da97176f62d219e9c8386189186b7be9ce3b7162c067675aabe7040701
d0c5ec82a502e3bcadfbfde0a93715cd5cca6c48afd7c467a0bc3dc52ad2f46f6fb1d233ade4c007a725a4dc88644efc8a4864e08227d7045bf1253db2f193c8
c0ff0c48b49f7f33c9bd7fb4b7e49c4a9a11b4f0290509423934da9ad7004c019645e0dd9984026e14ed06343c8ed35588c2e050a9b765bcde059cbc69150d96
7060d0fe073057e7a665d0fac02ce03ec593b7f1153c576be380d03eb0ca8440259b02ed88b7e2bdef66f270e2da7d198a4864e08227d7045bf1253db2f193c8
8f10d309634521e55afe4f8e0010b28d661ec81f6f4c84f35e6a212a8dd9ea14354e12fe1d38f3f5c34c792e9c35872f64fd1dc1cac825af34efd08719e33c92
4036fe3bb1fccadc5afe4f8e0010b28da31bf5dd73313a930f658b9033fb5a4e3ecfb4feaf868f20333e171463c9f579e901fc834b208bdf1f918957dce1df83
ca126c6c791a93365afe4f8e0010b28d1f810a24345d3df2dd635e737585d10ba67e7a96e2ecce8244c4fd4bc1c48205333e171463c9f579c5ceaab64babcaae
868b72e5e69b43855afe4f8e0010b28db4681d25751510af03e7aed81fd5f83ca6836e25b0915d7fe87a304ecbac3dda8a4864e08227d7045bf1253db2f193c8
e45aafc4c531f5745afe4f8e0010b28d12bb7b7d190eea502a1be9dc9452b4e04a19f02e7aae1429c34c792e9c35872f64fd1dc1cac825af34efd08719e33c92
065ff8608303b4ffaf14b7c938fb7d38f4eec5257cb54f111d39a73aeec08144f9715f7ddd5ff139d219e9c8386189186b7be9ce3b7162c067675aabe7040701
449ae8749da64effadfbfde0a93715cd357e7b8d0f28e58f6af16ebc99a2371064d17c2918af2ec57c9c9f137aa46d8e6d800294e2aba6b79cece267c5d40ea4
a4ffa12705fb573e5afe4f8e0010b28d661ec81f6f4c84f3fbab866b406f36ada67e7a96e2ecce82b1d44ea271fe0175333e171463c9f579c5ceaab64babcaae
c155bdf057a3d325af14b7c938fb7d38c7712dd8ccfd1a483a60e575875062d8e9ebdf6af31887bf9f5e5e6e14cf8df99814a4ab907caab0b823884299b3b871
b9ed3e04d2a7932992d19702986372a47cbea8b23a41942022bbe352e98e64403ecfb4feaf868f20333e171463c9f579e901fc834b208bdf1f918957dce1df83
444d41ff14fa3f215afe4f8e0010b28dfd2d411db122c8237e04d40d72aa1925478a87bc5b8e6cf93fc4220032af1caca73219e951e49376c4ae50ea1585ba07
3b59b36ad64eb5865afe4f8e0010b28d594cafa798a8a9883a5b22640ea40098ef66f270e2da7d198a4864e08227d704e7290865b33dd84677571d7de0d4aa5b
b50196b9367f04075afe4f8e0010b28d9914cdb57e61b4afc19ccc011052f576d219e9c8386189186b7be9ce3b7162c0ab56812ff9a73f6242904923734ff5e0
94fab6a88c3a1cac5afe4f8e0010b28df8ffa1c594b77edc48be8aace7175381ef66f270e2da7d198a4864e08227d704e7290865b33dd84677571d7de0d4aa5b
f438d5e86becb167fb6c4a8583801127c89b8e88baf6656cde9edef0ef786492089eb3aee0d92af88a4864e08227d704e7290865b33dd84677571d7de0d4aa5b
7060d0fe073057e7cd9f9b0fe66d8ad1a9dacbd417af11fbbe1a7ea01b9a816b354e12fe1d38f3f5c34c792e9c35872f64fd1dc1cac825af34efd08719e33c92
40ff64b82c572c495afe4f8e0010b28d27bee9a978b6b30bc164e8a1aaa7f06e49bcb2e9b7241eb4c34c792e9c35872f64fd1dc1cac825af34efd08719e33c92
e83d563d614d5ce99e031e0d8580ec80ee891e43fb604a98bd8cfdb5c4c462063ecfb4feaf868f20333e171463c9f579e901fc834b208bdf1f918957dce1df83
e0bee0f3fadd6724adfbfde0a93715cd2f2c258e0d14071a9edf194645c24c108c0fab00abef36a9d219e9c8386189186b7be9ce3b7162c067675aabe7040701
39b56735282d8973159b616cdf1f8a12c6a8b6f5bf6d73872bfffc88defdcec2e4ba5a2133dd0919055cbb0b9496cd7e8bb0e4ac074a4f57df49ae9dd4868393
5edf7e72a67a1c1d6b8ac20fac2acbf3c34c792e9c35872f64fd1dc1cac825af8da1bd28fbf1f85747e457a5465320c6af057b038eed1a1a5e8eee9d286cfcb1
db4ada8ba367b712221cb79f212ba8f1397fc0523da0c2d726495483820a10299814a4ab907caab017c7b8b6c940ff6b06e49ec41c513a3fea38535852df5cd3
6cb956a7405c965e9d1265e81dc80fdfb857a96079dd56ecc117b1cd094d435db7e075afda40f95f1cfb20439c8459248a4864e08227d7045bf1253db2f193c8
f62e713a3caeeaeeb37e0e3862d4854c75fb4ba62eeb9cb7b504c8c26fefae5875367bca7eae6183333e171463c9f579e901fc834b208bdf1f918957dce1df83
f62e713a3caeeaee0f17ef232aaf3ca78587617f274ca023fa71c17d1fc7f7181d64ddcfacf2d2417c9c9f137aa46d8e6d800294e2aba6b79cece267c5d40ea4
992e54e4d43a1f0fcf09340bd0d5f5ff4955749bf7e52f782a79b7faefc5c3cd8a4864e08227d704e7290865b33dd846c1248884c6c544f87425d5b633c0fbca
99958ef48c8369a8d219e9c8386189186b7be9ce3b7162c0ab56812ff9a73f625895ec85fdecc85c3b462d9a5fa08839065c9b7290e87d6241b168173bdff569
498d7e4dcb150e8e16f86285c2cb91c0a05cdd5f747f76477c9c9f137aa46d8e6d800294e2aba6b73f4350009e98875337a5483e815798f0fc72500ffde9b560
95063ffcc357695716a5a0590982d2ac64fd1dc1cac825af8da1bd28fbf1f85747e457a5465320c6af057b038eed1a1a89557fbc66e4593dcc93ef6a4bcd40ae
3bf11de2e2529ba816f86285c2cb91c05109cafbc770d9d27c9c9f137aa46d8e6d800294e2aba6b73f4350009e98875337a5483e815798f0fc72500ffde9b560
ce3f334df7442e4d6b99906cb1d5e8f018d9508a5c86edbd333e171463c9f579e901fc834b208bdf922aea191270602caa7e93fdca393bfdb0b94b81011ce3b7
e8765672477d963590d770d89657cb8d706b807646b80371d219e9c8386189186b7be9ce3b7162c0ab56812ff9a73f625895ec85fdecc85c68f0a562ecf22ed4
b6f3736230abe961ec7bed061d206a8f5dbac63cd05c269a3fc4220032af1caca73219e951e493761530a380c4d956f12670fef15c7f24850f3823d10c96d18b
fbf012923915ae39f8edecf7078a94e7706b807646b80371661c6c5a6c3f664f7c9c9f137aa46d8e6d800294e2aba6b73f4350009e9887533b45b53f27bd90e1
*+ VDD    5            
*+ XPART    0            
*
*
d6f9f76e50b87b51b1a0e2cca76c0e45587050638c155c453d5149c76957e151f16ea7ea3fd2550b0dbeb8d74e6dc669dd39cb5bd6a03783fc2b5a63bdf362e6
1e0b22458c9e013c706b807646b80371d97f371f7279397dd87b17a839788ddc9b73820c3d345231b3323f8554552caefa8c91cce1d2792c0545fc4817cf0738
dc99c82b4f523995d219e9c8386189186b7be9ce3b7162c0ab56812ff9a73f625895ec85fdecc85c3b462d9a5fa08839065c9b7290e87d6241b168173bdff569
*
*
$CDNENCFINISH
.ENDS  LM4040_ND10P0
*$
