Version 4
SHEET 1 1588 784
WIRE 784 -416 448 -416
WIRE 1056 -416 784 -416
WIRE 448 -320 448 -416
WIRE 544 -320 448 -320
WIRE 1056 -320 1056 -416
WIRE 448 -256 448 -320
WIRE 544 -256 544 -320
WIRE 1056 -176 1056 -240
WIRE 448 -112 448 -176
WIRE 544 -112 544 -176
WIRE 544 -112 448 -112
WIRE 784 -64 784 -416
WIRE 448 -16 448 -112
WIRE 544 -16 448 -16
WIRE 592 -16 544 -16
WIRE 736 -16 672 -16
WIRE 448 64 448 -16
WIRE -192 112 -368 112
WIRE -64 112 -128 112
WIRE 0 112 -64 112
WIRE 112 112 80 112
WIRE 144 112 112 112
WIRE 400 112 224 112
WIRE 544 160 544 -16
WIRE 608 160 544 160
WIRE 752 160 752 32
WIRE 752 160 672 160
WIRE 848 160 752 160
WIRE 1008 160 848 160
WIRE 1168 160 1072 160
WIRE 1248 160 1168 160
WIRE 1328 160 1248 160
WIRE 1520 160 1408 160
WIRE -368 208 -368 112
WIRE -64 224 -64 112
WIRE 416 240 416 160
WIRE 752 240 752 160
WIRE 848 240 848 160
WIRE 1248 240 1248 160
WIRE 1520 240 1520 160
WIRE -368 352 -368 288
WIRE -64 352 -64 304
WIRE 416 384 416 320
WIRE 752 384 752 320
WIRE 848 384 848 320
WIRE 1248 384 1248 320
WIRE 1520 384 1520 320
WIRE 112 512 112 112
WIRE 608 512 112 512
WIRE 1168 512 1168 160
WIRE 1168 512 688 512
FLAG 416 384 0
FLAG 752 384 0
FLAG 848 384 0
FLAG 1056 -176 0
FLAG -368 352 0
FLAG -64 352 0
FLAG 1248 384 0
FLAG 1520 384 0
FLAG 1520 160 OUT
DATAFLAG 560 -416 "$"
DATAFLAG 544 -16 "$"
SYMBOL res 240 96 R90
WINDOW 0 0 56 VBottom 2
WINDOW 3 32 56 VTop 2
SYMATTR InstName R1
SYMATTR Value 100
SYMBOL Misc/triode 448 112 R0
SYMATTR InstName U1
SYMATTR Value ECC88
SYMATTR SpiceModel ECC88
SYMBOL Misc/signal -368 192 R0
SYMATTR InstName V1
SYMATTR Value2 AC 1
SYMBOL voltage 1056 -336 R0
SYMATTR InstName V2
SYMATTR Value 200
SYMBOL Cap -128 96 R90
WINDOW 0 0 32 VBottom 2
WINDOW 3 32 32 VTop 2
SYMATTR InstName C2
SYMATTR Value 10µ
SYMBOL Res -80 208 R0
SYMATTR InstName R2
SYMATTR Value 1Meg
SYMBOL Res 96 96 R90
WINDOW 0 0 56 VBottom 2
WINDOW 3 32 56 VTop 2
SYMATTR InstName R3
SYMATTR Value 10k
SYMBOL Res 432 -272 R0
SYMATTR InstName R4
SYMATTR Value 56k
SYMBOL Res 528 -272 R0
SYMATTR InstName R5
SYMATTR Value 39k
SYMBOL Misc/triode 784 -16 R0
SYMATTR InstName U2
SYMATTR Value ECC88
SYMATTR SpiceModel ECC88
SYMBOL Res 400 224 R0
SYMATTR InstName R6
SYMATTR Value 1.21k
SYMBOL Res 736 224 R0
SYMATTR InstName R7
SYMATTR Value 56k
SYMBOL Res 832 224 R0
SYMATTR InstName R8
SYMATTR Value 39k
SYMBOL Cap 1072 144 R90
WINDOW 0 0 32 VBottom 2
WINDOW 3 32 32 VTop 2
SYMATTR InstName C3
SYMATTR Value 2.2µ
SYMBOL Res 704 496 R90
WINDOW 0 0 56 VBottom 2
WINDOW 3 32 56 VTop 2
SYMATTR InstName R9
SYMATTR Value 22k
SYMBOL Res 688 -32 R90
WINDOW 0 0 56 VBottom 2
WINDOW 3 32 56 VTop 2
SYMATTR InstName R10
SYMATTR Value 100
SYMBOL Res 1232 224 R0
SYMATTR InstName R11
SYMATTR Value 1Meg
SYMBOL Res 1504 224 R0
SYMATTR InstName R12
SYMATTR Value 47k
SYMBOL Res 1424 144 R90
WINDOW 0 0 56 VBottom 2
WINDOW 3 32 56 VTop 2
SYMATTR InstName R13
SYMATTR Value 470
SYMBOL Diode 608 176 R270
WINDOW 0 32 32 VTop 2
WINDOW 3 0 32 VBottom 2
SYMATTR InstName D1
TEXT 624 616 Left 2 !.INC ../../../spice/audio/ltspice/snk-lt-spice-audio.lib\n.op\n.tran 10m\n;.ac oct 50 1M 10Meg ; plot V(out)/V(out1) to see 72° phase margin @ 950kHz\n;.dc temp -55 125 1\n;.noise V(out) Vin oct 10 10 20K\n.options plotwinsize=0 numdgt=15 noopiter\n.four 1K V(out)
