Version 4
SHEET 1 916 1128
WIRE 352 16 32 16
WIRE 352 144 352 16
WIRE 432 144 352 144
WIRE 352 176 352 144
WIRE 32 192 32 16
WIRE 432 256 432 208
WIRE 432 256 400 256
WIRE 464 256 432 256
WIRE 656 256 544 256
WIRE 32 352 32 272
WIRE 352 352 352 272
WIRE 480 352 352 352
WIRE 656 352 656 256
WIRE 656 352 544 352
WIRE 352 384 352 352
WIRE 176 464 112 464
WIRE 304 464 256 464
WIRE 352 528 352 480
WIRE 656 528 656 352
WIRE 656 528 352 528
WIRE 112 560 112 464
WIRE 192 560 112 560
WIRE 352 560 352 528
WIRE 352 560 256 560
WIRE 352 608 352 560
WIRE 112 720 112 560
WIRE 352 720 352 688
WIRE 352 720 112 720
WIRE 608 720 352 720
WIRE 736 720 672 720
WIRE 768 720 736 720
WIRE 352 752 352 720
WIRE 768 768 768 720
WIRE 0 800 -272 800
WIRE 128 800 0 800
WIRE 304 800 208 800
WIRE 0 864 0 800
WIRE -272 880 -272 800
WIRE 320 896 320 848
WIRE 320 896 192 896
WIRE 768 912 768 848
WIRE 192 960 192 896
WIRE 320 960 320 896
WIRE -272 1104 -272 960
WIRE 0 1104 0 944
WIRE 192 1104 192 1024
WIRE 320 1104 320 1040
FLAG 320 1104 0
FLAG 192 1104 0
FLAG 768 912 0
FLAG 32 352 0
FLAG 0 1104 0
FLAG -272 1104 0
FLAG 736 720 OUT
SYMBOL voltage 32 176 R0
SYMATTR InstName V1
SYMATTR Value 54V
SYMBOL nmos 400 176 M0
SYMATTR InstName M1
SYMATTR Value IXTP08N100D2
SYMBOL nmos 304 384 R0
SYMATTR InstName M2
SYMATTR Value IXTP08N100D2
SYMBOL zener 544 336 R90
WINDOW 0 -4 32 VBottom 2
WINDOW 3 36 32 VTop 2
SYMATTR InstName D1
SYMATTR Value UDZV18B
SYMBOL res 336 592 R0
SYMATTR InstName R1
SYMATTR Value 76
SYMBOL Misc/triode 352 800 R0
SYMATTR InstName U1
SYMATTR Value 26A7_PM_triode
SYMBOL res 560 240 R90
WINDOW 0 0 56 VBottom 2
WINDOW 3 32 56 VTop 2
SYMATTR InstName R2
SYMATTR Value 120
SYMBOL Res 272 448 R90
WINDOW 0 0 56 VBottom 2
WINDOW 3 32 56 VTop 2
SYMATTR InstName R3
SYMATTR Value 120
SYMBOL zener 192 576 R270
WINDOW 0 36 32 VTop 2
WINDOW 3 -4 32 VBottom 2
SYMATTR InstName D2
SYMATTR Value UDZV18B
SYMBOL res 304 944 R0
SYMATTR InstName R4
SYMATTR Value 200
SYMBOL cap 176 960 R0
SYMATTR InstName C1
SYMATTR Value 470µ
SYMBOL cap 672 704 R90
WINDOW 0 0 32 VBottom 2
WINDOW 3 32 32 VTop 2
SYMATTR InstName C2
SYMATTR Value 2.2µ
SYMBOL res 752 752 R0
SYMATTR InstName R5
SYMATTR Value 100k
SYMBOL Res 224 784 R90
WINDOW 0 0 56 VBottom 2
WINDOW 3 32 56 VTop 2
SYMATTR InstName R6
SYMATTR Value 120
SYMBOL res -16 848 R0
SYMATTR InstName R7
SYMATTR Value 470k
SYMBOL Misc/signal -272 864 R0
SYMATTR InstName V2
SYMATTR Value2 AC 1
SYMBOL cap 416 144 R0
SYMATTR InstName C4
SYMATTR Value 1.2n
TEXT -1160 432 Left 2 !.INC 26A7.inc\n.INC IXTP08N100.inc\n.INC BSP129.inc\n.op\n.tran 10m\n;.ac oct 50 1M 100Meg ; plot V(out)/V(out1) to see 72° phase margin @ 950kHz\n;.dc temp -55 125 1\n;.noise V(out) Vin oct 10 10 20K\n.options plotwinsize=0 numdgt=15 noopiter\n.four 1K V(out)
